5
Coordinates from ORCA-job aiida
  C   5.64548881327185      5.80994866453788      5.64346765764064
  H   6.69692187476563      5.48314235094249      5.60627885318528
  H   4.99439208735198      4.99297270259510      5.29372856819020
  H   5.37934993831923      6.07373988481128      6.67946090420891
  H   5.51127471629130      6.68995940711324      4.99441722677497
